# generated using pymatgen
data_SiO2
_symmetry_space_group_name_H-M   'P 1'
_cell_length_a   8.67400000
_cell_length_b   8.67400000
_cell_length_c   13.91900000
_cell_angle_alpha   90.00000000
_cell_angle_beta   90.00000000
_cell_angle_gamma   90.00000000
_symmetry_Int_Tables_number   1
_chemical_formula_structural   SiO2
_chemical_formula_sum   'Si20 O40'
_cell_volume   1047.24156364
_cell_formula_units_Z   20
loop_
 _symmetry_equiv_pos_site_id
 _symmetry_equiv_pos_as_xyz
  1  'x, y, z'
loop_
 _atom_site_type_symbol
 _atom_site_label
 _atom_site_symmetry_multiplicity
 _atom_site_fract_x
 _atom_site_fract_y
 _atom_site_fract_z
 _atom_site_occupancy
  Si  Si0  1  0.25340000  0.43080000  0.11140000  1
  Si  Si1  1  0.56920000  0.25340000  0.11140000  1
  Si  Si2  1  0.74660000  0.56920000  0.11140000  1
  Si  Si3  1  0.43080000  0.74660000  0.11140000  1
  Si  Si4  1  0.74660000  0.43080000  0.61140000  1
  Si  Si5  1  0.43080000  0.25340000  0.61140000  1
  Si  Si6  1  0.25340000  0.56920000  0.61140000  1
  Si  Si7  1  0.56920000  0.74660000  0.61140000  1
  Si  Si8  1  0.74660000  0.56920000  0.88860000  1
  Si  Si9  1  0.43080000  0.74660000  0.88860000  1
  Si  Si10  1  0.25340000  0.43080000  0.88860000  1
  Si  Si11  1  0.56920000  0.25340000  0.88860000  1
  Si  Si12  1  0.25340000  0.56920000  0.38860000  1
  Si  Si13  1  0.56920000  0.74660000  0.38860000  1
  Si  Si14  1  0.74660000  0.43080000  0.38860000  1
  Si  Si15  1  0.43080000  0.25340000  0.38860000  1
  Si  Si16  1  0.00000000  0.50000000  0.25000000  1
  Si  Si17  1  0.50000000  0.00000000  0.25000000  1
  Si  Si18  1  0.00000000  0.50000000  0.75000000  1
  Si  Si19  1  0.50000000  0.00000000  0.75000000  1
  O  O20  1  0.10890000  0.60740000  0.31780000  1
  O  O21  1  0.39260000  0.10890000  0.31780000  1
  O  O22  1  0.89110000  0.39260000  0.31780000  1
  O  O23  1  0.60740000  0.89110000  0.31780000  1
  O  O24  1  0.89110000  0.60740000  0.81780000  1
  O  O25  1  0.60740000  0.10890000  0.81780000  1
  O  O26  1  0.10890000  0.39260000  0.81780000  1
  O  O27  1  0.39260000  0.89110000  0.81780000  1
  O  O28  1  0.89110000  0.39260000  0.68220000  1
  O  O29  1  0.60740000  0.89110000  0.68220000  1
  O  O30  1  0.10890000  0.60740000  0.68220000  1
  O  O31  1  0.39260000  0.10890000  0.68220000  1
  O  O32  1  0.10890000  0.39260000  0.18220000  1
  O  O33  1  0.39260000  0.89110000  0.18220000  1
  O  O34  1  0.89110000  0.60740000  0.18220000  1
  O  O35  1  0.60740000  0.10890000  0.18220000  1
  O  O36  1  0.19850000  0.41550000  0.00000000  1
  O  O37  1  0.58450000  0.19850000  0.00000000  1
  O  O38  1  0.80150000  0.58450000  0.00000000  1
  O  O39  1  0.41550000  0.80150000  0.00000000  1
  O  O40  1  0.80150000  0.41550000  0.50000000  1
  O  O41  1  0.41550000  0.19850000  0.50000000  1
  O  O42  1  0.19850000  0.58450000  0.50000000  1
  O  O43  1  0.58450000  0.80150000  0.50000000  1
  O  O44  1  0.39380000  0.31100000  0.13210000  1
  O  O45  1  0.68900000  0.39380000  0.13210000  1
  O  O46  1  0.60620000  0.68900000  0.13210000  1
  O  O47  1  0.31100000  0.60620000  0.13210000  1
  O  O48  1  0.60620000  0.31100000  0.63210000  1
  O  O49  1  0.31100000  0.39380000  0.63210000  1
  O  O50  1  0.39380000  0.68900000  0.63210000  1
  O  O51  1  0.68900000  0.60620000  0.63210000  1
  O  O52  1  0.60620000  0.68900000  0.86790000  1
  O  O53  1  0.31100000  0.60620000  0.86790000  1
  O  O54  1  0.39380000  0.31100000  0.86790000  1
  O  O55  1  0.68900000  0.39380000  0.86790000  1
  O  O56  1  0.39380000  0.68900000  0.36790000  1
  O  O57  1  0.68900000  0.60620000  0.36790000  1
  O  O58  1  0.60620000  0.31100000  0.36790000  1
  O  O59  1  0.31100000  0.39380000  0.36790000  1
